Version 4
SHEET 1 4744 1748
WIRE 1568 -48 1296 -48
WIRE 1872 -48 1568 -48
WIRE 160 -16 0 -16
WIRE 496 -16 160 -16
WIRE 3088 -16 2816 -16
WIRE 3392 -16 3088 -16
WIRE 0 32 0 -16
WIRE 496 48 496 -16
WIRE 1568 48 1568 -48
WIRE 1728 48 1568 48
WIRE 1872 48 1872 32
WIRE 3088 80 3088 -16
WIRE 3248 80 3088 80
WIRE 3392 80 3392 64
WIRE 160 112 160 -16
WIRE 1568 112 1568 48
WIRE 0 128 0 112
WIRE 0 128 -176 128
WIRE 112 128 0 128
WIRE 1728 128 1728 48
WIRE 496 144 496 128
WIRE 3088 144 3088 80
WIRE 3248 160 3248 80
WIRE 1296 192 1296 -48
WIRE -320 208 -544 208
WIRE -224 208 -320 208
WIRE 2816 224 2816 -16
WIRE -320 240 -320 208
WIRE 1568 240 1568 192
WIRE 1728 240 1728 192
WIRE 1728 240 1568 240
WIRE 1568 256 1568 240
WIRE 3088 272 3088 224
WIRE 3248 272 3248 224
WIRE 3248 272 3088 272
WIRE 160 288 160 208
WIRE 320 288 160 288
WIRE 3088 288 3088 272
WIRE 1296 336 1296 272
WIRE 1296 336 1200 336
WIRE 1520 336 1296 336
WIRE 160 352 160 288
WIRE 320 368 320 288
WIRE 2816 368 2816 304
WIRE 2816 368 2720 368
WIRE 3040 368 2816 368
WIRE 992 384 896 384
WIRE 1136 384 1072 384
WIRE 2512 416 2416 416
WIRE 2656 416 2592 416
WIRE -544 432 -544 208
WIRE -320 480 -320 320
WIRE -176 480 -176 224
WIRE -176 480 -320 480
WIRE 160 480 160 432
WIRE 160 480 -176 480
WIRE 320 480 320 432
WIRE 320 480 160 480
WIRE -544 528 -544 512
WIRE 160 528 160 480
WIRE 1200 528 1200 432
WIRE 1568 528 1568 352
WIRE 1568 528 1200 528
WIRE 896 560 896 384
WIRE 1568 560 1568 528
WIRE 2720 560 2720 464
WIRE 3088 560 3088 384
WIRE 3088 560 2720 560
WIRE 2416 592 2416 416
WIRE 3088 592 3088 560
WIRE 896 672 896 640
WIRE 2416 704 2416 672
FLAG 1568 560 0
FLAG 1872 48 0
FLAG 896 672 0
FLAG 160 528 0
FLAG 496 144 0
FLAG -544 528 0
FLAG 3088 592 0
FLAG 3392 80 0
FLAG 2416 704 0
SYMBOL ind 1552 96 R0
SYMATTR InstName L2
SYMATTR Value 10µ
SYMATTR SpiceLine Rser=10
SYMBOL nmos 1520 256 R0
SYMATTR InstName M3
SYMATTR Value BSB012N03LX3
SYMBOL voltage 1872 -64 R0
WINDOW 123 0 0 Left 0
WINDOW 39 0 0 Left 0
SYMATTR InstName V4
SYMATTR Value 12
SYMBOL voltage 896 544 R0
WINDOW 3 -159 194 Left 2
WINDOW 123 0 0 Left 0
WINDOW 39 0 0 Left 0
SYMATTR Value PWL(0 3 0.1 3 0.101 0 0.3 0 0.301 3 0.5 3 0.501 0)
SYMATTR InstName V6
SYMBOL diode 1744 192 R180
WINDOW 0 24 64 Left 2
WINDOW 3 24 0 Left 2
SYMATTR InstName D2
SYMATTR Value 1N914
SYMBOL npn 1136 336 R0
SYMATTR InstName Q1
SYMBOL res 976 400 R270
WINDOW 0 32 56 VTop 2
WINDOW 3 0 56 VBottom 2
SYMATTR InstName R4
SYMATTR Value 1k
SYMBOL res 1280 176 R0
SYMATTR InstName R5
SYMATTR Value 10k
SYMBOL ind 144 336 R0
SYMATTR InstName L1
SYMATTR Value 10µ
SYMATTR SpiceLine Rser=10
SYMBOL nmos -224 128 R0
SYMATTR InstName M1
SYMATTR Value BSB012N03LX3
SYMBOL voltage 496 32 R0
WINDOW 123 0 0 Left 0
WINDOW 39 0 0 Left 0
SYMATTR InstName V1
SYMATTR Value 12
SYMBOL voltage -544 416 R0
WINDOW 3 -313 165 Left 2
WINDOW 123 0 0 Left 0
WINDOW 39 0 0 Left 0
SYMATTR Value PWL(0 3 0.1 3 0.101 0 0.3 0 0.301 3 0.5 3 0.501 0)
SYMATTR InstName V2
SYMBOL diode 336 432 R180
WINDOW 0 24 64 Left 2
WINDOW 3 24 0 Left 2
SYMATTR InstName D1
SYMATTR Value 1N914
SYMBOL pmos 112 208 M180
SYMATTR InstName M2
SYMATTR Value FDS4435A
SYMBOL res -16 16 R0
SYMATTR InstName R1
SYMATTR Value 10k
SYMBOL res -336 224 R0
SYMATTR InstName R2
SYMATTR Value 10k
SYMBOL ind 3072 128 R0
SYMATTR InstName L5
SYMATTR Value 10µ
SYMATTR SpiceLine Rser=10
SYMBOL nmos 3040 288 R0
SYMATTR InstName M6
SYMATTR Value BSB012N03LX3
SYMBOL voltage 3392 -32 R0
WINDOW 123 0 0 Left 0
WINDOW 39 0 0 Left 0
SYMATTR InstName V10
SYMATTR Value 12
SYMBOL voltage 2416 576 R0
WINDOW 3 -159 194 Left 2
WINDOW 123 0 0 Left 0
WINDOW 39 0 0 Left 0
SYMATTR Value PWL(0 3 0.1 3 0.101 0 0.3 0 0.301 3 0.5 3 0.501 0)
SYMATTR InstName V11
SYMBOL diode 3264 224 R180
WINDOW 0 24 64 Left 2
WINDOW 3 24 0 Left 2
SYMATTR InstName D5
SYMATTR Value 1N914
SYMBOL res 2496 432 R270
WINDOW 0 32 56 VTop 2
WINDOW 3 0 56 VBottom 2
SYMATTR InstName R8
SYMATTR Value 1k
SYMBOL res 2800 208 R0
SYMATTR InstName R9
SYMATTR Value 10k
SYMBOL pnp 2656 464 M180
SYMATTR InstName Q4
TEXT -792 64 Left 2 !.tran 1
TEXT 1328 416 Left 2 ;merge  logica inversa
TEXT -104 288 Left 2 ;merge logica normala
TEXT 2848 448 Left 2 ;merge  logica normala
TEXT 2800 600 Left 2 ;Cu pnp
