Version 4
SHEET 1 3512 1396
WIRE 1824 -64 1552 -64
WIRE 2128 -64 1824 -64
WIRE 160 -16 0 -16
WIRE 496 -16 160 -16
WIRE 0 32 0 -16
WIRE 1824 32 1824 -64
WIRE 1984 32 1824 32
WIRE 2128 32 2128 16
WIRE 496 48 496 -16
WIRE 1824 96 1824 32
WIRE 160 112 160 -16
WIRE 1984 112 1984 32
WIRE 0 128 0 112
WIRE 0 128 -176 128
WIRE 112 128 0 128
WIRE 496 144 496 128
WIRE 1552 176 1552 -64
WIRE -320 208 -544 208
WIRE -224 208 -320 208
WIRE 1824 224 1824 176
WIRE 1984 224 1984 176
WIRE 1984 224 1824 224
WIRE -320 240 -320 208
WIRE 1824 240 1824 224
WIRE 160 288 160 208
WIRE 320 288 160 288
WIRE 1552 320 1552 256
WIRE 1552 320 1456 320
WIRE 1776 320 1552 320
WIRE 160 352 160 288
WIRE 320 368 320 288
WIRE 1248 368 1152 368
WIRE 1392 368 1328 368
WIRE -544 432 -544 208
WIRE -320 480 -320 320
WIRE -176 480 -176 224
WIRE -176 480 -320 480
WIRE 160 480 160 432
WIRE 160 480 -176 480
WIRE 320 480 320 432
WIRE 320 480 160 480
WIRE 1456 512 1456 416
WIRE 1824 512 1824 336
WIRE 1824 512 1456 512
WIRE -544 528 -544 512
WIRE 160 528 160 480
WIRE 1152 544 1152 368
WIRE 1824 544 1824 512
WIRE 1152 656 1152 624
WIRE -704 816 -832 816
WIRE 336 832 0 832
WIRE -704 848 -704 816
WIRE -832 896 -832 816
WIRE 336 896 336 832
WIRE 0 960 0 832
WIRE -704 976 -704 928
WIRE -48 976 -704 976
WIRE -832 992 -832 976
WIRE 336 992 336 976
WIRE 0 1136 0 1056
WIRE 160 1136 0 1136
WIRE 0 1200 0 1136
WIRE 160 1216 160 1136
WIRE -704 1280 -704 976
WIRE 0 1328 0 1280
WIRE 160 1328 160 1280
WIRE 160 1328 0 1328
WIRE -704 1376 -704 1360
WIRE 0 1376 0 1328
FLAG 1824 544 0
FLAG 2128 32 0
FLAG 1152 656 0
FLAG 160 528 0
FLAG 496 144 0
FLAG -544 528 0
FLAG 0 1376 0
FLAG 336 992 0
FLAG -704 1376 0
FLAG -832 992 0
SYMBOL ind 1808 80 R0
SYMATTR InstName L2
SYMATTR Value 10µ
SYMATTR SpiceLine Rser=10
SYMBOL nmos 1776 240 R0
SYMATTR InstName M3
SYMATTR Value BSB012N03LX3
SYMBOL voltage 2128 -80 R0
WINDOW 123 0 0 Left 0
WINDOW 39 0 0 Left 0
SYMATTR InstName V4
SYMATTR Value 12
SYMBOL voltage 1152 528 R0
WINDOW 3 -159 194 Left 2
WINDOW 123 0 0 Left 0
WINDOW 39 0 0 Left 0
SYMATTR InstName V6
SYMATTR Value PWL(0 3 0.1 3 0.101 0 0.3 0 0.301 3 0.5 3 0.501 0)
SYMBOL diode 2000 176 R180
WINDOW 0 24 64 Left 2
WINDOW 3 24 0 Left 2
SYMATTR InstName D2
SYMATTR Value 1N914
SYMBOL npn 1392 320 R0
SYMATTR InstName Q1
SYMBOL res 1232 384 R270
WINDOW 0 32 56 VTop 2
WINDOW 3 0 56 VBottom 2
SYMATTR InstName R4
SYMATTR Value 1k
SYMBOL res 1536 160 R0
SYMATTR InstName R5
SYMATTR Value 10k
SYMBOL ind 144 336 R0
SYMATTR InstName L1
SYMATTR Value 10µ
SYMATTR SpiceLine Rser=10
SYMBOL nmos -224 128 R0
SYMATTR InstName M1
SYMATTR Value BSB012N03LX3
SYMBOL voltage 496 32 R0
WINDOW 123 0 0 Left 0
WINDOW 39 0 0 Left 0
SYMATTR InstName V1
SYMATTR Value 12
SYMBOL voltage -544 416 R0
WINDOW 3 -543 55 Left 2
WINDOW 123 0 0 Left 0
WINDOW 39 0 0 Left 0
SYMATTR InstName V2
SYMATTR Value PWL(0 3 0.1 3 0.101 0 0.3 0 0.301 3 0.5 3 0.501 0)
SYMBOL diode 336 432 R180
WINDOW 0 24 64 Left 2
WINDOW 3 24 0 Left 2
SYMATTR InstName D1
SYMATTR Value 1N914
SYMBOL pmos 112 208 M180
SYMATTR InstName M2
SYMATTR Value FDS4435A
SYMBOL res -16 16 R0
SYMATTR InstName R1
SYMATTR Value 10k
SYMBOL res -336 224 R0
SYMATTR InstName R2
SYMATTR Value 10k
SYMBOL ind -16 1184 R0
SYMATTR InstName L3
SYMATTR Value 10µ
SYMATTR SpiceLine Rser=10
SYMBOL voltage 336 880 R0
WINDOW 123 0 0 Left 0
WINDOW 39 0 0 Left 0
SYMATTR InstName V3
SYMATTR Value 12
SYMBOL voltage -704 1264 R0
WINDOW 3 -543 55 Left 2
WINDOW 123 0 0 Left 0
WINDOW 39 0 0 Left 0
SYMATTR InstName V5
SYMATTR Value PWL(0 3 0.1 3 0.101 0 0.3 0 0.301 3 0.5 3 0.501 0)
SYMBOL diode 176 1280 R180
WINDOW 0 24 64 Left 2
WINDOW 3 24 0 Left 2
SYMATTR InstName D3
SYMATTR Value 1N914
SYMBOL pmos -48 1056 M180
SYMATTR InstName M5
SYMATTR Value FDS4435A
SYMBOL res -720 832 R0
SYMATTR InstName R3
SYMATTR Value 10k
SYMBOL voltage -832 880 R0
WINDOW 123 0 0 Left 0
WINDOW 39 0 0 Left 0
SYMATTR InstName V7
SYMATTR Value 3.3
TEXT 696 456 Left 2 !.tran 1
TEXT -352 1120 Left 2 ;nu merge
TEXT 1584 400 Left 2 ;merge  logica inversa
TEXT -104 288 Left 2 ;merge logica normala
